####################################################################### 
# 
# This file contains crystal structure data downloaded from the 
# Cambridge Structural Database (CSD) hosted by the Cambridge 
# Crystallographic Data Centre (CCDC).
# 
# Full information about CCDC data access policies and citation 
# guidelines are available at http://www.ccdc.cam.ac.uk/access/V1 
# 
# Audit and citation data items may have been added by the CCDC. 
# Please retain this information to preserve the provenance of 
# this file and to allow appropriate attribution of the data. 
# 
#######################################################################
@<TRIPOS>MOLECULE
DOESCF10
    96   105     1     0     0
SMALL
NO_CHARGES
****
Generated from the CSD

@<TRIPOS>ATOM
     1 Co1      0.7393   2.2464   2.7862   Co.oh     1 RES1   0.0000
     2 C1       1.7977  -0.1915   3.8883   C.2       1 RES1   0.0000
     3 C2       0.1741   4.7516   1.6264   C.2       1 RES1   0.0000
     4 C3       0.2527   5.4024   2.9003   C.2       1 RES1   0.0000
     5 C4       0.2516   6.8310   2.9341   C.2       1 RES1   0.0000
     6 C5       0.2386   7.5608   4.0750   C.2       1 RES1   0.0000
     7 C6       0.1660   6.8621   5.2983   C.2       1 RES1   0.0000
     8 C7       0.1595   5.4646   5.3261   C.2       1 RES1   0.0000
     9 C8       0.2382   4.7050   4.1495   C.2       1 RES1   0.0000
    10 C9       3.6778   2.6268   3.0731   C.2       1 RES1   0.0000
    11 C10      5.0750   4.5872   3.1823   C.3       1 RES1   0.0000
    12 C11      6.0123   2.3447   3.6361   C.3       1 RES1   0.0000
    13 C12      2.1293  -0.9847   5.0163   C.2       1 RES1   0.0000
    14 C13      2.6062  -2.2930   4.8356   C.2       1 RES1   0.0000
    15 C14      2.8097  -2.8144   3.5785   C.2       1 RES1   0.0000
    16 C15      2.5239  -2.0756   2.4565   C.2       1 RES1   0.0000
    17 C16      2.0160  -0.7428   2.5886   C.2       1 RES1   0.0000
    18 C17      1.7763  -0.0323   1.3822   C.2       1 RES1   0.0000
    19 C18      1.2320   1.8530   0.0209   C.3       1 RES1   0.0000
    20 C19      0.1268   2.9076   0.1321   C.3       1 RES1   0.0000
    21 H1       0.0485   5.3701   0.7546   H         1 RES1   0.0000
    22 H2       0.2687   7.3887   1.9859   H         1 RES1   0.0000
    23 H3       0.2523   8.6439   4.0710   H         1 RES1   0.0000
    24 H4       0.1004   7.4405   6.2455   H         1 RES1   0.0000
    25 H5       0.1075   4.9301   6.2852   H         1 RES1   0.0000
    26 H6       3.6140   1.5399   3.1476   H         1 RES1   0.0000
    27 H7       6.0666   4.6584   3.6738   H         1 RES1   0.0000
    28 H8       5.1097   4.9172   2.1547   H         1 RES1   0.0000
    29 H9       4.3193   5.1889   3.7036   H         1 RES1   0.0000
    30 H10      5.5440   1.2940   3.5745   H         1 RES1   0.0000
    31 H11      6.7971   2.4198   2.9192   H         1 RES1   0.0000
    32 H12      6.4103   2.4974   4.6271   H         1 RES1   0.0000
    33 H13      1.9798  -0.5823   6.0271   H         1 RES1   0.0000
    34 H14      2.7939  -2.9115   5.6994   H         1 RES1   0.0000
    35 H15      3.2201  -3.8173   3.4455   H         1 RES1   0.0000
    36 H16      2.6917  -2.4845   1.4596   H         1 RES1   0.0000
    37 H17      2.0057  -0.5435   0.4468   H         1 RES1   0.0000
    38 H18      2.1859   2.3292  -0.1986   H         1 RES1   0.0000
    39 H19      1.0010   1.1517  -0.7745   H         1 RES1   0.0000
    40 H20     -0.8475   2.4457   0.0199   H         1 RES1   0.0000
    41 H21      0.2216   3.6750  -0.6156   H         1 RES1   0.0000
    42 N1       1.2770   1.1685   1.3246   N.2       1 RES1   0.0000
    43 N2       0.2393   3.4809   1.4705   N.2       1 RES1   0.0000
    44 N3       4.8488   3.1599   3.3213   N.am      1 RES1   0.0000
    45 O1       1.3845   1.0456   4.1107   O.3       1 RES1   0.0000
    46 O2       0.2919   3.3955   4.2358   O.3       1 RES1   0.0000
    47 O3      -0.9096   1.3018   2.9788   O.3       1 RES1   0.0000
    48 O4       2.6554   3.2208   2.7643   O.2       1 RES1   0.0000
    49 O3B     -1.8085   1.3018   1.9859   O.3       1 RES1   0.0000
    50 Co1B    -3.4574   2.2464   2.1785   Co.oh     1 RES1   0.0000
    51 N1B     -3.9951   1.1685   3.6401   N.2       1 RES1   0.0000
    52 N2B     -2.9573   3.4809   3.4941   N.2       1 RES1   0.0000
    53 O1B     -4.1026   1.0456   0.8539   O.3       1 RES1   0.0000
    54 O2B     -3.0099   3.3955   0.7288   O.3       1 RES1   0.0000
    55 O4B     -5.3735   3.2208   2.2003   O.2       1 RES1   0.0000
    56 C17B    -4.4944  -0.0323   3.5825   C.2       1 RES1   0.0000
    57 C18B    -3.9501   1.8530   4.9438   C.3       1 RES1   0.0000
    58 C2B     -2.8922   4.7516   3.3382   C.2       1 RES1   0.0000
    59 C19B    -2.8448   2.9076   4.8326   C.3       1 RES1   0.0000
    60 C1B     -4.5158  -0.1915   1.0763   C.2       1 RES1   0.0000
    61 C8B     -2.9563   4.7050   0.8152   C.2       1 RES1   0.0000
    62 C9B     -6.3959   2.6268   1.8915   C.2       1 RES1   0.0000
    63 C16B    -4.7340  -0.7428   2.3761   C.2       1 RES1   0.0000
    64 H17B    -4.7237  -0.5435   4.5178   H         1 RES1   0.0000
    65 H18B    -4.9040   2.3292   5.1632   H         1 RES1   0.0000
    66 H19B    -3.7191   1.1517   5.7391   H         1 RES1   0.0000
    67 C3B     -2.9708   5.4024   2.0643   C.2       1 RES1   0.0000
    68 H1B     -2.7665   5.3701   4.2100   H         1 RES1   0.0000
    69 H20B    -1.8705   2.4457   4.9448   H         1 RES1   0.0000
    70 H21B    -2.9397   3.6750   5.5803   H         1 RES1   0.0000
    71 C12B    -4.8474  -0.9847  -0.0516   C.2       1 RES1   0.0000
    72 C7B     -2.8775   5.4646  -0.3614   C.2       1 RES1   0.0000
    73 H6B     -6.3321   1.5399   1.8171   H         1 RES1   0.0000
    74 N3B     -7.5669   3.1599   1.6433   N.am      1 RES1   0.0000
    75 C15B    -5.2420  -2.0756   2.5081   C.2       1 RES1   0.0000
    76 C4B     -2.9696   6.8310   2.0305   C.2       1 RES1   0.0000
    77 C13B    -5.3243  -2.2930   0.1291   C.2       1 RES1   0.0000
    78 H13B    -4.6979  -0.5823  -1.0624   H         1 RES1   0.0000
    79 C6B     -2.8841   6.8621  -0.3336   C.2       1 RES1   0.0000
    80 H5B     -2.8255   4.9301  -1.3206   H         1 RES1   0.0000
    81 C10B    -7.7930   4.5872   1.7823   C.3       1 RES1   0.0000
    82 C11B    -8.7303   2.3447   1.3285   C.3       1 RES1   0.0000
    83 C14B    -5.5278  -2.8145   1.3861   C.2       1 RES1   0.0000
    84 H16B    -5.4098  -2.4845   3.5050   H         1 RES1   0.0000
    85 C5B     -2.9566   7.5608   0.8897   C.2       1 RES1   0.0000
    86 H2B     -2.9868   7.3887   2.9788   H         1 RES1   0.0000
    87 H14B    -5.5120  -2.9115  -0.7348   H         1 RES1   0.0000
    88 H4B     -2.8184   7.4405  -1.2809   H         1 RES1   0.0000
    89 H7B     -8.7847   4.6584   1.2908   H         1 RES1   0.0000
    90 H8B     -7.8277   4.9172   2.8100   H         1 RES1   0.0000
    91 H9B     -7.0374   5.1889   1.2610   H         1 RES1   0.0000
    92 H10B    -8.2621   1.2940   1.3901   H         1 RES1   0.0000
    93 H11B    -9.5152   2.4198   2.0454   H         1 RES1   0.0000
    94 H12B    -9.1283   2.4974   0.3376   H         1 RES1   0.0000
    95 H15B    -5.9382  -3.8173   1.5192   H         1 RES1   0.0000
    96 H3B     -2.9704   8.6439   0.8936   H         1 RES1   0.0000
@<TRIPOS>BOND
     1     1    42    1
     2     2    13    1
     3     3     4    1
     4     4     5    1
     5     5     6    2
     6     6     7    1
     7     7     8    2
     8     8     9    1
     9     9     4    2
    10    10    26    1
    11    11    27    1
    12    12    30    1
    13    13    14    2
    14    14    15    1
    15    15    16    2
    16    16    17    1
    17    17     2    2
    18    18    17    1
    19    19    20    1
    20    20    40    1
    21    21     3    1
    22    22     5    1
    23    23     6    1
    24    24     7    1
    25    25     8    1
    26    28    11    1
    27    29    11    1
    28    31    12    1
    29    32    12    1
    30    33    13    1
    31    34    14    1
    32    35    15    1
    33    36    16    1
    34    37    18    1
    35    38    19    1
    36    39    19    1
    37    41    20    1
    38    42    18    2
    39    43     1    1
    40    44    10   am
    41    45     1    1
    42    46     1    1
    43    47     1    1
    44    48     1    1
    45    49    47    1
    46    50    49    1
    47    51    50    1
    48    52    50    1
    49    53    50    1
    50    54    50    1
    51    55    50    1
    52    56    51    2
    53    57    51    1
    54    58    52    2
    55    59    52    1
    56    60    53    1
    57    61    54    1
    58    62    55    2
    59    63    56    1
    60    64    56    1
    61    65    57    1
    62    66    57    1
    63    67    58    1
    64    68    58    1
    65    69    59    1
    66    70    59    1
    67    71    60    1
    68    72    61    1
    69    73    62    1
    70    74    62   am
    71    75    63    1
    72    76    67    1
    73    77    71    2
    74    78    71    1
    75    79    72    2
    76    80    72    1
    77    81    74    1
    78    82    74    1
    79    83    75    2
    80    84    75    1
    81    85    76    2
    82    86    76    1
    83    87    77    1
    84    88    79    1
    85    89    81    1
    86    90    81    1
    87    91    81    1
    88    92    82    1
    89    93    82    1
    90    94    82    1
    91    95    83    1
    92    96    85    1
    93     2    45    1
    94     3    43    2
    95     9    46    1
    96    10    48    2
    97    11    44    1
    98    12    44    1
    99    19    42    1
   100    20    43    1
   101    57    59    1
   102    60    63    2
   103    61    67    2
   104    77    83    1
   105    79    85    1
@<TRIPOS>SUBSTRUCTURE
     1 RES1        1 GROUP             0 ****  ****    0  
@<TRIPOS>CRYSIN
   28.8500   12.9400   11.3200   90.0000  118.7000   90.0000    15     1
