@<TRIPOS>MOLECULE
*****
 53 76 0 0 0
SMALL
GASTEIGER

@<TRIPOS>ATOM
      1 CO          8.7729    8.7729    8.7729 Co.oh   1  UNL1        0.0000
      2 O           9.6116    9.6116    9.6116 O.3     1  UNL1        0.0000
      3 O           9.6116    7.9342    7.9342 O.3     1  UNL1        0.0000
      4 O           7.9342    7.9342    9.6116 O.3     1  UNL1        0.0000
      5 O           7.9342    9.6116    7.9342 O.3     1  UNL1        0.0000
      6 W           8.8475   11.3078   11.3078 W       1  UNL1        0.0000
      7 O           7.6257    9.9200   11.7706 O.3     1  UNL1        0.0000
      8 O          10.2464   10.2464   12.1422 O.3     1  UNL1        0.0000
      9 O           8.5471   12.4624   12.4624 O.2     1  UNL1        0.0000
     10 W           6.2380    8.6982   11.3078 W       1  UNL1        0.0000
     11 O           7.2994    7.2994   12.1422 O.3     1  UNL1        0.0000
     12 O           5.0834    8.9986   12.4624 O.2     1  UNL1        0.0000
     13 W          11.3078    8.8475   11.3078 W       1  UNL1        0.0000
     14 O           9.9200    7.6257   11.7706 O.3     1  UNL1        0.0000
     15 O          12.4624    8.5471   12.4624 O.2     1  UNL1        0.0000
     16 O           5.7751    9.9200    9.9200 O.3     1  UNL1        0.0000
     17 O           5.4035    7.2994   10.2464 O.3     1  UNL1        0.0000
     18 O          11.7706    7.6257    9.9200 O.3     1  UNL1        0.0000
     19 O          12.1422   10.2464   10.2464 O.3     1  UNL1        0.0000
     20 W           6.2380   11.3078    8.6982 W       1  UNL1        0.0000
     21 O           5.4035   10.2464    7.2994 O.3     1  UNL1        0.0000
     22 O           5.0834   12.4624    8.9986 O.2     1  UNL1        0.0000
     23 W          11.3078    6.2380    8.6982 W       1  UNL1        0.0000
     24 O          12.1422    7.2994    7.2994 O.3     1  UNL1        0.0000
     25 O          12.4624    5.0834    8.9986 O.2     1  UNL1        0.0000
     26 W           6.2380    6.2380    8.8475 W       1  UNL1        0.0000
     27 O           5.7751    7.6257    7.6257 O.3     1  UNL1        0.0000
     28 O           5.0834    5.0834    8.5471 O.2     1  UNL1        0.0000
     29 W          11.3078   11.3078    8.8475 W       1  UNL1        0.0000
     30 O          11.7706    9.9200    7.6257 O.3     1  UNL1        0.0000
     31 O          12.4624   12.4624    8.5471 O.2     1  UNL1        0.0000
     32 O           7.6257   11.7706    9.9200 O.3     1  UNL1        0.0000
     33 O           7.2994   12.1422    7.2994 O.3     1  UNL1        0.0000
     34 O           9.9200   11.7706    7.6257 O.3     1  UNL1        0.0000
     35 O          10.2464   12.1422   10.2464 O.3     1  UNL1        0.0000
     36 W           8.6982    6.2380   11.3078 W       1  UNL1        0.0000
     37 O           8.9986    5.0834   12.4624 O.2     1  UNL1        0.0000
     38 CO         11.3078    8.6982    6.2380 Co.oh   1  UNL1        0.0000
     39 O           9.9200    9.9200    5.7751 O.3     1  UNL1        0.0000
     40 O          10.2464    7.2994    5.4035 O.3     1  UNL1        0.0000
     41 O          12.4624    8.9986    5.0834 O.3     1  UNL1        0.0000
     42 W           6.2380    8.8475    6.2380 W       1  UNL1        0.0000
     43 O           7.6257    7.6257    5.7751 O.3     1  UNL1        0.0000
     44 O           7.2994   10.2464    5.4035 O.3     1  UNL1        0.0000
     45 O           5.0834    8.5471    5.0834 O.2     1  UNL1        0.0000
     46 O           9.9200    5.7751    9.9200 O.3     1  UNL1        0.0000
     47 O          10.2464    5.4035    7.2994 O.3     1  UNL1        0.0000
     48 O           7.6257    5.7751    7.6257 O.3     1  UNL1        0.0000
     49 O           7.2994    5.4035   10.2464 O.3     1  UNL1        0.0000
     50 W           8.6982   11.3078    6.2380 W       1  UNL1        0.0000
     51 O           8.9986   12.4624    5.0834 O.2     1  UNL1        0.0000
     52 W           8.8475    6.2380    6.2380 W       1  UNL1        0.0000
     53 O           8.5471    5.0834    5.0834 O.2     1  UNL1        0.0000
@<TRIPOS>BOND
     1     2    13    1
     2     1     3    1
     3     1     4    1
     4     1     5    1
     5     6     7    1
     6     6     8    1
     7     6     9    2
     8     6    32    1
     9     6    35    1
    10     7    10    1
    11     8    13    1
    12    10    11    1
    13    10    12    2
    14    10    16    1
    15    10    17    1
    16    11    36    1
    17    13    14    1
    18    13    15    2
    19    13    18    1
    20    13    19    1
    21    14    36    1
    22    16    20    1
    23    17    26    1
    24    18    23    1
    25    19    29    1
    26    20    21    1
    27    20    22    2
    28    20    32    1
    29    20    33    1
    30    21    42    1
    31    23    24    1
    32    23    25    2
    33    23    46    1
    34    23    47    1
    35    24    38    1
    36    26    27    1
    37    26    28    2
    38    26    48    1
    39    26    49    1
    40    27    42    1
    41    29    30    1
    42    29    31    2
    43    29    34    1
    44    29    35    1
    45    30    38    1
    46    33    50    1
    47    34    50    1
    48    36    37    2
    49    36    46    1
    50    36    49    1
    51    38    39    1
    52    38    40    1
    53    38    41    1
    54    39    50    1
    55    40    52    1
    56    42    43    1
    57    42    44    1
    58    42    45    2
    59    43    52    1
    60    44    50    1
    61    47    52    1
    62    48    52    1
    63    50    51    2
    64    52    53    2
    65     4    10    1
    66     4    36    1
    67     4    26    1
    68     3    52    1
    69     3    23    1
    70     3    38    1
    71     2    29    1
    72     2     6    1
    73     1     2    1
    74     5    20    1
    75     5    42    1
    76     5    50    1
