####################################################################### 
# 
# This file contains crystal structure data downloaded from the 
# Cambridge Structural Database (CSD) hosted by the Cambridge 
# Crystallographic Data Centre (CCDC).
# 
# Full information about CCDC data access policies and citation 
# guidelines are available at http://www.ccdc.cam.ac.uk/access/V1 
# 
# Audit and citation data items may have been added by the CCDC. 
# Please retain this information to preserve the provenance of 
# this file and to allow appropriate attribution of the data. 
# 
#######################################################################
@<TRIPOS>MOLECULE
MEBQES
    47    48     3     0     0
SMALL
USER_CHARGES
****
Generated from the CSD

@<TRIPOS>ATOM
     1 Cu1      6.8144  -0.4250   4.6531   Cu        1 RES1   2.0000
     2 C1       4.2859  -1.2526   3.6676   C.3       1 RES1   0.0000
     3 H1A      3.7379  -1.7324   2.9966   H         1 RES1   0.0000
     4 H1B      3.8132  -0.4215   3.9235   H         1 RES1   0.0000
     5 C2       4.5066  -2.1273   4.8881   C.3       1 RES1   0.0000
     6 H2A      3.6533  -2.2630   5.3706   H         1 RES1   0.0000
     7 H2B      4.8569  -3.0124   4.6159   H         1 RES1   0.0000
     8 N1       5.6227  -0.9312   3.1041   N.3       1 RES1   0.0000
     9 H1C      5.5593  -0.2400   2.5155   H         1 RES1   0.0000
    10 H1D      5.9625  -1.6528   2.6672   H         1 RES1   0.0000
    11 N2       5.4879  -1.4347   5.7645   N.3       1 RES1   0.0000
    12 H2C      5.9231  -2.0458   6.2789   H         1 RES1   0.0000
    13 H2D      5.0508  -0.8584   6.3170   H         1 RES1   0.0000
    14 C1       9.3429   0.4025   5.6386   C.3       1 RES1   0.0000
    15 H1A      9.8909   0.8823   6.3096   H         1 RES1   0.0000
    16 H1B      9.8156  -0.4286   5.3827   H         1 RES1   0.0000
    17 C2       9.1222   1.2773   4.4181   C.3       1 RES1   0.0000
    18 H2A      9.9755   1.4129   3.9356   H         1 RES1   0.0000
    19 H2B      8.7719   2.1624   4.6903   H         1 RES1   0.0000
    20 N1       8.0060   0.0811   6.2021   N.3       1 RES1   0.0000
    21 H1C      8.0695  -0.6101   6.7907   H         1 RES1   0.0000
    22 H1D      7.6662   0.8028   6.6390   H         1 RES1   0.0000
    23 N2       8.1409   0.5846   3.5417   N.3       1 RES1   0.0000
    24 H2C      7.7057   1.1958   3.0273   H         1 RES1   0.0000
    25 H2D      8.5780   0.0083   2.9891   H         1 RES1   0.0000
    26 B1       5.6674   2.3313   1.0246   B         2 RES2  -1.0000
    27 B2       5.1424   2.4936   3.4628   B         2 RES2   0.0000
    28 B3       3.8553   3.7954   1.9292   B         2 RES2   0.0000
    29 B4       5.8506   0.5223  -0.6877   B         2 RES2   0.0000
    30 B5       7.5802   2.1703  -0.5533   B         2 RES2   0.0000
    31 O1       5.8740   2.0110   2.4289   O.3       2 RES2   0.0000
    32 O2       4.1008   3.3873   3.2208   O.3       2 RES2   0.0000
    33 O3       4.6303   3.3865   0.8767   O.3       2 RES2   0.0000
    34 O4       5.1830   1.1259   0.3316   O.3       2 RES2   0.0000
    35 O5       7.0612   1.0222  -1.1357   O.3       2 RES2   0.0000
    36 O6       6.9230   2.8131   0.4486   O.3       2 RES2   0.0000
    37 O7       5.4244   2.0502   4.7130   O.3       2 RES2   0.0000
    38 H7       4.9881   2.4978   5.2738   H         2 RES2   0.0000
    39 O8       2.8140   4.6584   1.7358   O.3       2 RES2   0.0000
    40 H8       2.7365   4.8252   0.9157   H         2 RES2   0.0000
    41 O9       5.3644  -0.5795  -1.3178   O.3       2 RES2   0.0000
    42 H9       4.6347  -0.8034  -0.9669   H         2 RES2   0.0000
    43 O10      8.7934   2.5825  -1.0239   O.3       2 RES2   0.0000
    44 H10      8.9970   3.3160  -0.6682   H         2 RES2   0.0000
    45 O21      8.2099   4.2746   2.6424   O.3       3 RES3   0.0000
    46 H21A     9.0352   4.3563   2.4559   H         3 RES3   0.0000
    47 H21B     7.8201   3.8462   2.0204   H         3 RES3   0.0000
@<TRIPOS>BOND
     1     1     8    1
     2     1    11    1
     3     1    20    1
     4     1    23    1
     5     2     3    1
     6     2     4    1
     7     2     5    1
     8     2     8    1
     9     5     6    1
    10     5     7    1
    11     5    11    1
    12     8     9    1
    13     8    10    1
    14    11    12    1
    15    11    13    1
    16    14    15    1
    17    14    16    1
    18    14    17    1
    19    14    20    1
    20    17    18    1
    21    17    19    1
    22    17    23    1
    23    20    21    1
    24    20    22    1
    25    23    24    1
    26    23    25    1
    27    26    31    1
    28    26    33    1
    29    26    34    1
    30    26    36    1
    31    27    31    1
    32    27    32    1
    33    27    37    1
    34    28    32    1
    35    28    33    1
    36    28    39    1
    37    29    34    1
    38    29    35    1
    39    29    41    1
    40    30    35    1
    41    30    36    1
    42    30    43    1
    43    37    38    1
    44    39    40    1
    45    41    42    1
    46    43    44    1
    47    45    46    1
    48    45    47    1
@<TRIPOS>SUBSTRUCTURE
     1 RES1        1 GROUP             0 ****  ****    0  
     2 RES2       26 GROUP             0 ****  ****    0  
     3 RES3       45 GROUP             0 ****  ****    0  
@<TRIPOS>CRYSIN
    8.0286    8.6193    9.6553   92.8670  104.5670   98.4740     2     1
