@<TRIPOS>MOLECULE
ï»¿Mn (B4 O7) (H2 O)9
 13 14 0 0 0
SMALL
GASTEIGER

@<TRIPOS>ATOM
      1 O           6.4663    5.3775    6.7552 O.3     1  UNL1        0.0000
      2 B           5.6210    6.5469    6.8225 B       1  UNL1        0.0000
      3 O           5.2159    4.5772    4.8645 O.3     1  UNL1        0.0000
      4 B           6.5929    4.8444    5.4297 B       1  UNL1        0.0000
      5 O           5.4502    7.0856    8.1412 O.3     1  UNL1        0.0000
      6 B           7.0066    7.1745    4.8578 B       1  UNL1        0.0000
      7 O           2.8685    4.7768    4.9991 O.3     1  UNL1        0.0000
      8 O           6.2084    7.5757    5.8872 O.3     1  UNL1        0.0000
      9 O           4.2217    6.2206    6.3515 O.3     1  UNL1        0.0000
     10 O           7.6461    8.1741    4.1513 O.3     1  UNL1        0.0000
     11 O           7.2427    5.8680    4.5348 O.3     1  UNL1        0.0000
     12 B           4.1105    5.2025    5.4297 B       1  UNL1        0.0000
     13 O           7.3416    3.5858    5.3221 O.3     1  UNL1        0.0000
@<TRIPOS>UNITY_ATOM_ATTR
1 1
charge -2
3 1
charge -2
10 1
charge -2
@<TRIPOS>BOND
     1     2     5    1
     2     4    13    1
     3     4     1    1
     4     6     8    1
     5     7    12    1
     6     2     8    1
     7     2     9    1
     8     2     1    1
     9     9    12    1
    10     4     3    1
    11     6    11    1
    12     4    11    1
    13    12     3    1
    14     6    10    1
