####################################################################### 
# 
# This file contains crystal structure data downloaded from the 
# Cambridge Structural Database (CSD) hosted by the Cambridge 
# Crystallographic Data Centre (CCDC).
# 
# Full information about CCDC data access policies and citation 
# guidelines are available at http://www.ccdc.cam.ac.uk/access/V1 
# 
# Audit and citation data items may have been added by the CCDC. 
# Please retain this information to preserve the provenance of 
# this file and to allow appropriate attribution of the data. 
# 
#######################################################################
@<TRIPOS>MOLECULE
TIMTIV
   147   145     9     0     0
SMALL
USER_CHARGES
****
Generated from the CSD

@<TRIPOS>ATOM
     1 Cu1     10.6485   5.5925   4.1556   Cu        1 RES1   0.0000
     2 O1      12.0729   7.0168   4.0563   O.3       1 RES1   0.0000
     3 O2       9.2756   4.2227   4.3024   O.3       1 RES1   0.0000
     4 O3       8.9982   2.3520   5.7654   O.3       1 RES1   0.0000
     5 O4       7.2961   4.0290   5.6595   O.3       1 RES1   0.0000
     6 O5       7.1694   3.7006   3.2751   O.3       1 RES1   0.0000
     7 O6       8.8398   2.0321   3.4210   O.3       1 RES1   0.0000
     8 O7       7.4248   5.8562   4.1594   O.3       1 RES1   0.0000
     9 O8       9.4700   7.0168   4.5040   O.3       1 RES1   0.0000
    10 O9      10.9185   2.3759   4.4390   O.3       1 RES1   0.0000
    11 O10     12.0729   4.3869   4.0238   O.3       1 RES1   0.0000
    12 O11      7.4149   2.4980   7.4763   O.3       1 RES1   0.0000
    13 H11      6.7214   2.9230   7.6865   H         1 RES1   0.0000
    14 O12      6.9178   1.6840   2.0193   O.3       1 RES1   0.0000
    15 H12      6.3002   2.1373   1.6718   H         1 RES1   0.0000
    16 B1       7.8232   4.4837   4.3405   B         1 RES1  -1.0000
    17 B2       9.5359   2.7688   4.4603   B         1 RES1  -1.0000
    18 B3       7.8945   2.9695   6.2846   B         1 RES1   0.0000
    19 B4       7.7267   2.5302   2.8311   B         1 RES1   0.0000
    20 B5       8.1280   7.0168   4.2588   B         1 RES1   0.0000
    21 B6      12.0729   3.0789   4.2950   B         1 RES1   0.0000
    22 Cu21     9.1505   7.0168   1.0419   Cu        1 RES1   0.0000
    23 Cu22    12.0729   7.0168   1.6172   Cu        1 RES1   0.0000
    24 O21     10.6145   5.7397   1.4769   O.3       1 RES1   0.0000
    25 O22     12.0729   3.8241   0.8852   O.3       1 RES1   0.0000
    26 O23      9.7742   3.6389   0.6437   O.3       1 RES1   0.0000
    27 H23      9.9622   2.8390   0.8190   H         1 RES1   0.0000
    28 O24      7.7677   5.5811   0.8434   O.3       1 RES1   0.0000
    29 H24A     7.0411   5.8940   0.4201   H         1 RES1   0.0000
    30 H24B     7.4408   5.3325   1.6408   H         1 RES1   0.0000
    31 N25      9.7090   7.0168  -1.2530   N.3       1 RES1   0.0000
    32 B21     10.8197   4.4416   0.9939   B         1 RES1   0.0000
    33 O2       9.2756   9.8108   4.3024   O.3       1 RES1   0.0000
    34 O3       8.9982  11.6815   5.7654   O.3       1 RES1   0.0000
    35 O4       7.2961  10.0045   5.6595   O.3       1 RES1   0.0000
    36 O5       7.1694  10.3329   3.2751   O.3       1 RES1   0.0000
    37 O6       8.8398  12.0014   3.4210   O.3       1 RES1   0.0000
    38 O7       7.4248   8.1773   4.1594   O.3       1 RES1   0.0000
    39 O9      10.9185  11.6576   4.4390   O.3       1 RES1   0.0000
    40 O10     12.0729   9.6466   4.0238   O.3       1 RES1   0.0000
    41 O11      7.4149  11.5355   7.4763   O.3       1 RES1   0.0000
    42 H11      6.7214  11.1105   7.6865   H         1 RES1   0.0000
    43 O12      6.9178  12.3495   2.0193   O.3       1 RES1   0.0000
    44 H12      6.3002  11.8962   1.6718   H         1 RES1   0.0000
    45 B1       7.8232   9.5498   4.3405   B         1 RES1  -1.0000
    46 B2       9.5359  11.2647   4.4603   B         1 RES1  -1.0000
    47 B3       7.8945  11.0640   6.2846   B         1 RES1   0.0000
    48 B4       7.7267  11.5033   2.8311   B         1 RES1   0.0000
    49 B6      12.0729  10.9546   4.2950   B         1 RES1   0.0000
    50 O2      14.8702   4.2227   4.3024   O.3       1 RES1   0.0000
    51 O3      15.1476   2.3520   5.7654   O.3       1 RES1   0.0000
    52 O4      16.8497   4.0290   5.6595   O.3       1 RES1   0.0000
    53 O5      16.9764   3.7006   3.2751   O.3       1 RES1   0.0000
    54 O6      15.3060   2.0321   3.4210   O.3       1 RES1   0.0000
    55 O7      16.7210   5.8562   4.1594   O.3       1 RES1   0.0000
    56 O8      14.6758   7.0168   4.5040   O.3       1 RES1   0.0000
    57 O9      13.2273   2.3759   4.4390   O.3       1 RES1   0.0000
    58 O11     16.7309   2.4980   7.4763   O.3       1 RES1   0.0000
    59 H11     17.4244   2.9230   7.6865   H         1 RES1   0.0000
    60 O12     17.2280   1.6840   2.0193   O.3       1 RES1   0.0000
    61 H12     17.8456   2.1373   1.6718   H         1 RES1   0.0000
    62 B1      16.3226   4.4837   4.3405   B         1 RES1  -1.0000
    63 B2      14.6099   2.7688   4.4603   B         1 RES1  -1.0000
    64 B3      16.2513   2.9695   6.2846   B         1 RES1   0.0000
    65 B4      16.4191   2.5302   2.8311   B         1 RES1   0.0000
    66 B5      16.0178   7.0168   4.2588   B         1 RES1   0.0000
    67 O2      14.8702   9.8108   4.3024   O.3       1 RES1   0.0000
    68 O3      15.1476  11.6815   5.7654   O.3       1 RES1   0.0000
    69 O4      16.8497  10.0045   5.6595   O.3       1 RES1   0.0000
    70 O5      16.9764  10.3329   3.2751   O.3       1 RES1   0.0000
    71 O6      15.3060  12.0014   3.4210   O.3       1 RES1   0.0000
    72 O7      16.7210   8.1773   4.1594   O.3       1 RES1   0.0000
    73 O9      13.2273  11.6576   4.4390   O.3       1 RES1   0.0000
    74 O11     16.7309  11.5355   7.4763   O.3       1 RES1   0.0000
    75 H11     17.4244  11.1105   7.6865   H         1 RES1   0.0000
    76 O12     17.2280  12.3495   2.0193   O.3       1 RES1   0.0000
    77 H12     17.8456  11.8962   1.6718   H         1 RES1   0.0000
    78 B1      16.3226   9.5498   4.3405   B         1 RES1  -1.0000
    79 B2      14.6099  11.2647   4.4603   B         1 RES1  -1.0000
    80 B3      16.2513  11.0640   6.2846   B         1 RES1   0.0000
    81 B4      16.4191  11.5033   2.8311   B         1 RES1   0.0000
    82 O21     13.5313   5.7397   1.4769   O.3       1 RES1   0.0000
    83 O23     14.3716   3.6389   0.6437   O.3       1 RES1   0.0000
    84 H23     14.1836   2.8390   0.8190   H         1 RES1   0.0000
    85 B21     13.3261   4.4416   0.9939   B         1 RES1   0.0000
    86 Cu1     13.4973   8.4410   4.1556   Cu        1 RES1   0.0000
    87 Cu21    14.9953   7.0168   1.0419   Cu        1 RES1   0.0000
    88 O21     13.5313   8.2938   1.4769   O.3       1 RES1   0.0000
    89 O22     12.0729  10.2094   0.8852   O.3       1 RES1   0.0000
    90 O23     14.3716  10.3946   0.6437   O.3       1 RES1   0.0000
    91 H23     14.1836  11.1945   0.8190   H         1 RES1   0.0000
    92 O24     16.3781   8.4524   0.8434   O.3       1 RES1   0.0000
    93 H24A    17.1047   8.1395   0.4201   H         1 RES1   0.0000
    94 H24B    16.7050   8.7010   1.6408   H         1 RES1   0.0000
    95 N25     14.4368   7.0168  -1.2530   N.3       1 RES1   0.0000
    96 B21     13.3261   9.5919   0.9939   B         1 RES1   0.0000
    97 O21     10.6145   8.2938   1.4769   O.3       1 RES1   0.0000
    98 O23      9.7742  10.3946   0.6437   O.3       1 RES1   0.0000
    99 H23      9.9622  11.1945   0.8190   H         1 RES1   0.0000
   100 B21     10.8197   9.5919   0.9939   B         1 RES1   0.0000
   101 Cu1     10.6485   8.4410   4.1556   Cu        1 RES1   2.0000
   102 O24      7.7677   8.4524   0.8434   O.3       1 RES1   0.0000
   103 H24A     7.0411   8.1395   0.4201   H         1 RES1   0.0000
   104 H24B     7.4408   8.7010   1.6408   H         1 RES1   0.0000
   105 Cu1     13.4973   5.5925   4.1556   Cu        1 RES1   2.0000
   106 O24     16.3781   5.5811   0.8434   O.3       1 RES1   0.0000
   107 H24A    17.1047   5.8940   0.4201   H         1 RES1   0.0000
   108 H24B    16.7050   5.3325   1.6408   H         1 RES1   0.0000
   109 O42     10.7458   4.6647   6.9970   O.3       2 RES2   1.0000
   110 H42A    10.4209   3.8658   7.1146   H         2 RES2   0.0000
   111 H42B    10.7321   5.0236   7.7897   H         2 RES2   0.0000
   112 O61     10.6821   0.9669   9.1845   O.3       3 RES3   1.0000
   113 H61A     9.9539   0.6840   9.5669   H         3 RES3   0.0000
   114 H61B    10.4054   1.5123   8.5647   H         3 RES3   0.0000
   115 O61     10.6821  -0.9669   9.1845   O.3       4 RES4   1.0000
   116 H61A     9.9539  -0.6840   9.5669   H         4 RES4   0.0000
   117 H61B    10.4054  -1.5123   8.5647   H         4 RES4   0.0000
   118 O31      4.6966   7.0168   4.2235   O.3       5 RES5   0.0000
   119 O32      7.0791   0.0000   5.0437   O.3       6 RES6   0.0000
   120 O51      9.9572   0.0000   6.7174   O.3       7 RES7   0.0000
   121 O33     10.5493   0.0000   2.4512   O.3       8 RES8   0.0000
   122 O12A?    7.3596   2.0082   1.6134   O.3       9 RES9   0.0000
   123 H12A?    6.7632   2.4890   1.2714   H         9 RES9   0.0000
   124 O8A?     9.4313   7.0168   3.9383   O.3       9 RES9   0.0000
   125 O62?    10.8738   2.2720   7.8404   O.3       9 RES9   0.0000
   126 H62A?   10.7804   1.6627   7.2264   H         9 RES9   0.0000
   127 H62B?   11.4277   2.8471   7.4942   H         9 RES9   0.0000
   128 H25A?   10.4885   6.5654  -1.3756   H         9 RES9   0.0000
   129 H25B?    9.8048   7.8743  -1.5417   H         9 RES9   0.0000
   130 H25C?    9.0452   6.6105  -1.7262   H         9 RES9   0.0000
   131 H31A?    4.1437   6.3927   3.9795   H         9 RES9   0.0000
   132 H31B?    4.6464   7.6125   3.5906   H         9 RES9   0.0000
   133 H33A?   10.8572   0.0617   3.2626   H         9 RES9   0.0000
   134 H33B?   10.2948  -0.8259   2.3742   H         9 RES9   0.0000
   135 H32A?    6.6923   0.1217   4.2730   H         9 RES9   0.0000
   136 H32B?    7.3288  -0.8313   5.0348   H         9 RES9   0.0000
   137 H51A?    9.5461   0.1952   5.9784   H         9 RES9   0.0000
   138 H51B?    9.3444  -0.3832   7.1993   H         9 RES9   0.0000
   139 O52?    11.4526  -0.0547   5.7858   O.3       9 RES9   0.0000
   140 H52A?   11.7569   0.1411   6.5772   H         9 RES9   0.0000
   141 H52B?   11.2599  -0.9018   5.8303   H         9 RES9   0.0000
   142 O41?    11.9222   5.7439   7.0834   O.3       9 RES9   0.0000
   143 H41A?   11.2203   5.5194   6.6206   H         9 RES9   0.0000
   144 H41B?   11.7541   6.5530   7.3552   H         9 RES9   0.0000
   145 O34?     7.1933   6.5803   7.2515   O.3       9 RES9   0.0000
   146 H34A?    6.8374   6.0298   6.6789   H         9 RES9   0.0000
   147 H34B?    6.5143   6.9289   7.6695   H         9 RES9   0.0000
@<TRIPOS>BOND
     1     1     2    1
     2     1     3    1
     3     1     9    1
     4     1    11    1
     5     1    24    1
     6     1   101    1
     7     1   105    1
     8     2    23    1
     9     2    86    1
    10     2   101    1
    11     2   105    1
    12     3    16    1
    13     3    17    1
    14     4    17    1
    15     4    18    1
    16     5    16    1
    17     5    18    1
    18     6    16    1
    19     6    19    1
    20     7    17    1
    21     7    19    1
    22     8    16    1
    23     8    20    1
    24     9    20    1
    25     9   101    1
    26    10    17    1
    27    10    21    1
    28    11    21    1
    29    11   105    1
    30    12    13    1
    31    12    18    1
    32    14    15    1
    33    14    19    1
    34    20    38    1
    35    21    57    1
    36    22    24    1
    37    22    28    1
    38    22    31    1
    39    22    97    1
    40    22   102    1
    41    23    24    1
    42    23    82    1
    43    23    88    1
    44    23    97    1
    45    24    32    1
    46    25    32    1
    47    25    85    1
    48    26    27    1
    49    26    32    1
    50    28    29    1
    51    28    30    1
    52    33    45    1
    53    33    46    1
    54    33   101    1
    55    34    46    1
    56    34    47    1
    57    35    45    1
    58    35    47    1
    59    36    45    1
    60    36    48    1
    61    37    46    1
    62    37    48    1
    63    38    45    1
    64    39    46    1
    65    39    49    1
    66    40    49    1
    67    40    86    1
    68    40   101    1
    69    41    42    1
    70    41    47    1
    71    43    44    1
    72    43    48    1
    73    49    73    1
    74    50    62    1
    75    50    63    1
    76    50   105    1
    77    51    63    1
    78    51    64    1
    79    52    62    1
    80    52    64    1
    81    53    62    1
    82    53    65    1
    83    54    63    1
    84    54    65    1
    85    55    62    1
    86    55    66    1
    87    56    66    1
    88    56    86    1
    89    56   105    1
    90    57    63    1
    91    58    59    1
    92    58    64    1
    93    60    61    1
    94    60    65    1
    95    66    72    1
    96    67    78    1
    97    67    79    1
    98    67    86    1
    99    68    79    1
   100    68    80    1
   101    69    78    1
   102    69    80    1
   103    70    78    1
   104    70    81    1
   105    71    79    1
   106    71    81    1
   107    72    78    1
   108    73    79    1
   109    74    75    1
   110    74    80    1
   111    76    77    1
   112    76    81    1
   113    82    85    1
   114    82    87    1
   115    82   105    1
   116    83    84    1
   117    83    85    1
   118    86    88    1
   119    86   101    1
   120    86   105    1
   121    87    88    1
   122    87    92    1
   123    87    95    1
   124    87   106    1
   125    88    96    1
   126    89    96    1
   127    89   100    1
   128    90    91    1
   129    90    96    1
   130    92    93    1
   131    92    94    1
   132    97   100    1
   133    97   101    1
   134    98    99    1
   135    98   100    1
   136   102   103    1
   137   102   104    1
   138   106   107    1
   139   106   108    1
   140   109   110    1
   141   109   111    1
   142   112   113    1
   143   112   114    1
   144   115   116    1
   145   115   117    1
@<TRIPOS>SUBSTRUCTURE
     1 RES1        1 GROUP             0 ****  ****    0  
     2 RES2      109 GROUP             0 ****  ****    0  
     3 RES3      112 GROUP             0 ****  ****    0  
     4 RES4      115 GROUP             0 ****  ****    0  
     5 RES5      118 GROUP             0 ****  ****    0  
     6 RES6      119 GROUP             0 ****  ****    0  
     7 RES7      120 GROUP             0 ****  ****    0  
     8 RES8      121 GROUP             0 ****  ****    0  
     9 RES9      122 GROUP             0 ****  ****    0  
@<TRIPOS>CRYSIN
   24.1458   14.0335    9.2885   90.0000   90.0000   90.0000    44     1
